Feeders/8500-Node/UBLoads_test.dss
! ----------------------------------------------------------------
! UNBalanced Load Case
!-----------------------------------------------------------------
!
!  Each load is defined as a 1-phase 120V load
!
! ----------------------------------------------------------------8.46                  
! UNBalanced Load Case3.98                  
!-----------------------------------------------------------------5.62                  
!6.72                  
!  Each load is defined as a 1-phase 120V load4.61                  
!2.37                  
New Load.138236B0a     phases=1 Bus1=SX2673305B.1 kV=.120 Status=variable Model=1 Conn=wye kW=1.56                  pf = 0.97 Vminpu = 0.88 
New Load.138236B0b     phases=1 Bus1=SX2673305B.2 kV=.120 Status=variable Model=1 Conn=wye kW=2.71                  pf = 0.97 Vminpu = 0.88 
New Load.138237B0a     phases=1 Bus1=SX3048196B.1 kV=.120 Status=variable Model=1 Conn=wye kW=2.06                  pf = 0.97 Vminpu = 0.88 
New Load.138237B0b     phases=1 Bus1=SX3048196B.2 kV=.120 Status=variable Model=1 Conn=wye kW=4.86                  pf = 0.97 Vminpu = 0.88 
New Load.138258C0a     phases=1 Bus1=SX2991911C.1 kV=.120 Status=variable Model=1 Conn=wye kW=7.75                  pf = 0.97 Vminpu = 0.88 
New Load.138258C0b     phases=1 Bus1=SX2991911C.2 kV=.120 Status=variable Model=1 Conn=wye kW=2.41                  pf = 0.97 Vminpu = 0.88 
New Load.138259C0a     phases=1 Bus1=SX2973158C.1 kV=.120 Status=variable Model=1 Conn=wye kW=3.87                  pf = 0.97 Vminpu = 0.88 
New Load.138259C0b     phases=1 Bus1=SX2973158C.2 kV=.120 Status=variable Model=1 Conn=wye kW=1.55                  pf = 0.97 Vminpu = 0.88 
New Load.138260A0a     phases=1 Bus1=SX3048208A.1 kV=.120 Status=variable Model=1 Conn=wye kW=9.54                  pf = 0.97 Vminpu = 0.88 
New Load.138260A0b     phases=1 Bus1=SX3048208A.2 kV=.120 Status=variable Model=1 Conn=wye kW=4.07                  pf = 0.97 Vminpu = 0.88 
New Load.138262A0a     phases=1 Bus1=SX3029502A.1 kV=.120 Status=variable Model=1 Conn=wye kW=1.84                  pf = 0.97 Vminpu = 0.88 
New Load.138262A0b     phases=1 Bus1=SX3029502A.2 kV=.120 Status=variable Model=1 Conn=wye kW=4.48                  pf = 0.97 Vminpu = 0.88 
New Load.138264B0a     phases=1 Bus1=SX3104125B.1 kV=.120 Status=variable Model=1 Conn=wye kW=4.37                  pf = 0.97 Vminpu = 0.88 
New Load.138264B0b     phases=1 Bus1=SX3104125B.2 kV=.120 Status=variable Model=1 Conn=wye kW=4.86                  pf = 0.97 Vminpu = 0.88 
New Load.138265A0a     phases=1 Bus1=SX3160107A.1 kV=.120 Status=variable Model=1 Conn=wye kW=7.82                  pf = 0.97 Vminpu = 0.88 
New Load.138265A0b     phases=1 Bus1=SX3160107A.2 kV=.120 Status=variable Model=1 Conn=wye kW=4.08                  pf = 0.97 Vminpu = 0.88 
New Load.138294B0a     phases=1 Bus1=SX2785516B.1 kV=.120 Status=variable Model=1 Conn=wye kW=2.48                  pf = 0.97 Vminpu = 0.88 
New Load.138294B0b     phases=1 Bus1=SX2785516B.2 kV=.120 Status=variable Model=1 Conn=wye kW=3.2                   pf = 0.97 Vminpu = 0.88 
New Load.138313A0a     phases=1 Bus1=SX3141400A.1 kV=.120 Status=variable Model=1 Conn=wye kW=9.23                  pf = 0.97 Vminpu = 0.88 
New Load.138313A0b     phases=1 Bus1=SX3141400A.2 kV=.120 Status=variable Model=1 Conn=wye kW=1.75                  pf = 0.97 Vminpu = 0.88 
New Load.138342C0a     phases=1 Bus1=SX2897775C.1 kV=.120 Status=variable Model=1 Conn=wye kW=4.71                  pf = 0.97 Vminpu = 0.88 
New Load.138342C0b     phases=1 Bus1=SX2897775C.2 kV=.120 Status=variable Model=1 Conn=wye kW=3.57                  pf = 0.97 Vminpu = 0.88 
New Load.138343C0a     phases=1 Bus1=SX3010565C.1 kV=.120 Status=variable Model=1 Conn=wye kW=9.87                  pf = 0.97 Vminpu = 0.88 
New Load.138343C0b     phases=1 Bus1=SX3010565C.2 kV=.120 Status=variable Model=1 Conn=wye kW=7.68                  pf = 0.97 Vminpu = 0.88 
New Load.138346C0a     phases=1 Bus1=SX2916609C.1 kV=.120 Status=variable Model=1 Conn=wye kW=5.08                  pf = 0.97 Vminpu = 0.88 
New Load.138346C0b     phases=1 Bus1=SX2916609C.2 kV=.120 Status=variable Model=1 Conn=wye kW=2.78                  pf = 0.97 Vminpu = 0.88 
New Load.138371C0a     phases=1 Bus1=SX2879073C.1 kV=.120 Status=variable Model=1 Conn=wye kW=1.58                  pf = 0.97 Vminpu = 0.88 
New Load.138371C0b     phases=1 Bus1=SX2879073C.2 kV=.120 Status=variable Model=1 Conn=wye kW=3.85                  pf = 0.97 Vminpu = 0.88 
New Load.138372C0a     phases=1 Bus1=SX3104126C.1 kV=.120 Status=variable Model=1 Conn=wye kW=3.16                  pf = 0.97 Vminpu = 0.88 
New Load.138372C0b     phases=1 Bus1=SX3104126C.2 kV=.120 Status=variable Model=1 Conn=wye kW=3.02                  pf = 0.97 Vminpu = 0.88 
New Load.138373C0a     phases=1 Bus1=SX3029503C.1 kV=.120 Status=variable Model=1 Conn=wye kW=4.53                  pf = 0.97 Vminpu = 0.88 
New Load.138373C0b     phases=1 Bus1=SX3029503C.2 kV=.120 Status=variable Model=1 Conn=wye kW=2.3                   pf = 0.97 Vminpu = 0.88 
New Load.138374C0a     phases=1 Bus1=SX2691950C.1 kV=.120 Status=variable Model=1 Conn=wye kW=2.3                   pf = 0.97 Vminpu = 0.88 
New Load.138374C0b     phases=1 Bus1=SX2691950C.2 kV=.120 Status=variable Model=1 Conn=wye kW=6.04                  pf = 0.97 Vminpu = 0.88 
New Load.138379C0a     phases=1 Bus1=SX2691951C.1 kV=.120 Status=variable Model=1 Conn=wye kW=11.05                 pf = 0.97 Vminpu = 0.88 
New Load.138379C0b     phases=1 Bus1=SX2691951C.2 kV=.120 Status=variable Model=1 Conn=wye kW=4.17                  pf = 0.97 Vminpu = 0.88 
New Load.138380C0a     phases=1 Bus1=SX2879076C.1 kV=.120 Status=variable Model=1 Conn=wye kW=2.72                  pf = 0.97 Vminpu = 0.88 
New Load.138380C0b     phases=1 Bus1=SX2879076C.2 kV=.120 Status=variable Model=1 Conn=wye kW=5.13                  pf = 0.97 Vminpu = 0.88 
New Load.138404C0a     phases=1 Bus1=SX2841630C.1 kV=.120 Status=variable Model=1 Conn=wye kW=27.17                 pf = 0.97 Vminpu = 0.88 
New Load.138404C0b     phases=1 Bus1=SX2841630C.2 kV=.120 Status=variable Model=1 Conn=wye kW=19.13                 pf = 0.97 Vminpu = 0.88 
New Load.138405C0a     phases=1 Bus1=SX2841629C.1 kV=.120 Status=variable Model=1 Conn=wye kW=1.86                  pf = 0.97 Vminpu = 0.88 
New Load.138405C0b     phases=1 Bus1=SX2841629C.2 kV=.120 Status=variable Model=1 Conn=wye kW=3.03                  pf = 0.97 Vminpu = 0.88 
New Load.138412C0a     phases=1 Bus1=SX2785523C.1 kV=.120 Status=variable Model=1 Conn=wye kW=4.2                   pf = 0.97 Vminpu = 0.88 
New Load.138412C0b     phases=1 Bus1=SX2785523C.2 kV=.120 Status=variable Model=1 Conn=wye kW=4.23                  pf = 0.97 Vminpu = 0.88 
New Load.138413C0a     phases=1 Bus1=SX3216347C.1 kV=.120 Status=variable Model=1 Conn=wye kW=5.57                  pf = 0.97 Vminpu = 0.88 
New Load.138413C0b     phases=1 Bus1=SX3216347C.2 kV=.120 Status=variable Model=1 Conn=wye kW=9.27                  pf = 0.97 Vminpu = 0.88 
New Load.138416C0a     phases=1 Bus1=SX3141388C.1 kV=.120 Status=variable Model=1 Conn=wye kW=2.37                  pf = 0.97 Vminpu = 0.88 
New Load.138416C0b     phases=1 Bus1=SX3141388C.2 kV=.120 Status=variable Model=1 Conn=wye kW=4.08                  pf = 0.97 Vminpu = 0.88 
New Load.138464C0a     phases=1 Bus1=SX3066801C.1 kV=.120 Status=variable Model=1 Conn=wye kW=7.23                  pf = 0.97 Vminpu = 0.88 
New Load.138464C0b     phases=1 Bus1=SX3066801C.2 kV=.120 Status=variable Model=1 Conn=wye kW=1.64                  pf = 0.97 Vminpu = 0.88 
New Load.138465C0a     phases=1 Bus1=SX2879055C.1 kV=.120 Status=variable Model=1 Conn=wye kW=2.14                  pf = 0.97 Vminpu = 0.88 
New Load.138465C0b     phases=1 Bus1=SX2879055C.2 kV=.120 Status=variable Model=1 Conn=wye kW=1.34                  pf = 0.97 Vminpu = 0.88 
New Load.138466C0a     phases=1 Bus1=SX2973144C.1 kV=.120 Status=variable Model=1 Conn=wye kW=5.23                  pf = 0.97 Vminpu = 0.88 
New Load.138466C0b     phases=1 Bus1=SX2973144C.2 kV=.120 Status=variable Model=1 Conn=wye kW=3.47                  pf = 0.97 Vminpu = 0.88 
New Load.138469C0a     phases=1 Bus1=SX2785518C.1 kV=.120 Status=variable Model=1 Conn=wye kW=5.53                  pf = 0.97 Vminpu = 0.88 
New Load.138469C0b     phases=1 Bus1=SX2785518C.2 kV=.120 Status=variable Model=1 Conn=wye kW=3.23                  pf = 0.97 Vminpu = 0.88 
New Load.138470C0a     phases=1 Bus1=SX2766717C.1 kV=.120 Status=variable Model=1 Conn=wye kW=7.16                  pf = 0.97 Vminpu = 0.88 
New Load.138470C0b     phases=1 Bus1=SX2766717C.2 kV=.120 Status=variable Model=1 Conn=wye kW=3.3                   pf = 0.97 Vminpu = 0.88 
New Load.138472C0a     phases=1 Bus1=SX2673309C.1 kV=.120 Status=variable Model=1 Conn=wye kW=1.99                  pf = 0.97 Vminpu = 0.88 
New Load.138472C0b     phases=1 Bus1=SX2673309C.2 kV=.120 Status=variable Model=1 Conn=wye kW=2.89                  pf = 0.97 Vminpu = 0.88 
New Load.138560A0a     phases=1 Bus1=SX3104113A.1 kV=.120 Status=variable Model=1 Conn=wye kW=6.74                  pf = 0.97 Vminpu = 0.88 
New Load.138560A0b     phases=1 Bus1=SX3104113A.2 kV=.120 Status=variable Model=1 Conn=wye kW=7.87                  pf = 0.97 Vminpu = 0.88 
New Load.138561A0a     phases=1 Bus1=SX3104121A.1 kV=.120 Status=variable Model=1 Conn=wye kW=3.78                  pf = 0.97 Vminpu = 0.88 
New Load.138561A0b     phases=1 Bus1=SX3104121A.2 kV=.120 Status=variable Model=1 Conn=wye kW=8.09                  pf = 0.97 Vminpu = 0.88 
New Load.138562A0a     phases=1 Bus1=SX2673310A.1 kV=.120 Status=variable Model=1 Conn=wye kW=3.78                  pf = 0.97 Vminpu = 0.88 
New Load.138562A0b     phases=1 Bus1=SX2673310A.2 kV=.120 Status=variable Model=1 Conn=wye kW=4.87                  pf = 0.97 Vminpu = 0.88 
New Load.138563A0a     phases=1 Bus1=SX2916627A.1 kV=.120 Status=variable Model=1 Conn=wye kW=4.88                  pf = 0.97 Vminpu = 0.88 
New Load.138563A0b     phases=1 Bus1=SX2916627A.2 kV=.120 Status=variable Model=1 Conn=wye kW=5.69                  pf = 0.97 Vminpu = 0.88 
New Load.138564A0a     phases=1 Bus1=SX2804283A.1 kV=.120 Status=variable Model=1 Conn=wye kW=9.5                   pf = 0.97 Vminpu = 0.88 
New Load.138564A0b     phases=1 Bus1=SX2804283A.2 kV=.120 Status=variable Model=1 Conn=wye kW=2.41                  pf = 0.97 Vminpu = 0.88 
New Load.138565A0a     phases=1 Bus1=SX3104122A.1 kV=.120 Status=variable Model=1 Conn=wye kW=5.57                  pf = 0.97 Vminpu = 0.88 
New Load.138565A0b     phases=1 Bus1=SX3104122A.2 kV=.120 Status=variable Model=1 Conn=wye kW=8.05                  pf = 0.97 Vminpu = 0.88 
New Load.138566A0a     phases=1 Bus1=SX2785519A.1 kV=.120 Status=variable Model=1 Conn=wye kW=2.61                  pf = 0.97 Vminpu = 0.88 
New Load.138566A0b     phases=1 Bus1=SX2785519A.2 kV=.120 Status=variable Model=1 Conn=wye kW=4.52                  pf = 0.97 Vminpu = 0.88 
New Load.138567A0a     phases=1 Bus1=SX2748129A.1 kV=.120 Status=variable Model=1 Conn=wye kW=1.5                   pf = 0.97 Vminpu = 0.88 
New Load.138567A0b     phases=1 Bus1=SX2748129A.2 kV=.120 Status=variable Model=1 Conn=wye kW=4.02                  pf = 0.97 Vminpu = 0.88 
New Load.138569A0a     phases=1 Bus1=SX2973151A.1 kV=.120 Status=variable Model=1 Conn=wye kW=2.1                   pf = 0.97 Vminpu = 0.88 
New Load.138569A0b     phases=1 Bus1=SX2973151A.2 kV=.120 Status=variable Model=1 Conn=wye kW=3.52                  pf = 0.97 Vminpu = 0.88 
New Load.138570A0a     phases=1 Bus1=SX2748146A.1 kV=.120 Status=variable Model=1 Conn=wye kW=2.02                  pf = 0.97 Vminpu = 0.88 
New Load.138570A0b     phases=1 Bus1=SX2748146A.2 kV=.120 Status=variable Model=1 Conn=wye kW=1.9                   pf = 0.97 Vminpu = 0.88 
New Load.138571A0a     phases=1 Bus1=SX2991913A.1 kV=.120 Status=variable Model=1 Conn=wye kW=10.51                 pf = 0.97 Vminpu = 0.88 
New Load.138571A0b     phases=1 Bus1=SX2991913A.2 kV=.120 Status=variable Model=1 Conn=wye kW=3.99                  pf = 0.97 Vminpu = 0.88 
New Load.138573A0a     phases=1 Bus1=SX3235253A.1 kV=.120 Status=variable Model=1 Conn=wye kW=2.48                  pf = 0.97 Vminpu = 0.88 
New Load.138573A0b     phases=1 Bus1=SX3235253A.2 kV=.120 Status=variable Model=1 Conn=wye kW=1.6                   pf = 0.97 Vminpu = 0.88 
New Load.138574A0a     phases=1 Bus1=SX2991907A.1 kV=.120 Status=variable Model=1 Conn=wye kW=2.8                   pf = 0.97 Vminpu = 0.88 
New Load.138574A0b     phases=1 Bus1=SX2991907A.2 kV=.120 Status=variable Model=1 Conn=wye kW=3.74                  pf = 0.97 Vminpu = 0.88 
New Load.138581A0a     phases=1 Bus1=SX2879064A.1 kV=.120 Status=variable Model=1 Conn=wye kW=12.95                 pf = 0.97 Vminpu = 0.88 
New Load.138581A0b     phases=1 Bus1=SX2879064A.2 kV=.120 Status=variable Model=1 Conn=wye kW=2.43                  pf = 0.97 Vminpu = 0.88 
New Load.138585C0a     phases=1 Bus1=SX3197637C.1 kV=.120 Status=variable Model=1 Conn=wye kW=4.02                  pf = 0.97 Vminpu = 0.88 
New Load.138585C0b     phases=1 Bus1=SX3197637C.2 kV=.120 Status=variable Model=1 Conn=wye kW=4.65                  pf = 0.97 Vminpu = 0.88 
New Load.138586C0a     phases=1 Bus1=SX2860487C.1 kV=.120 Status=variable Model=1 Conn=wye kW=3.05                  pf = 0.97 Vminpu = 0.88 
New Load.138586C0b     phases=1 Bus1=SX2860487C.2 kV=.120 Status=variable Model=1 Conn=wye kW=4.6                   pf = 0.97 Vminpu = 0.88 
New Load.138641C0a     phases=1 Bus1=SX2841638C.1 kV=.120 Status=variable Model=1 Conn=wye kW=3.14                  pf = 0.97 Vminpu = 0.88 
New Load.138641C0b     phases=1 Bus1=SX2841638C.2 kV=.120 Status=variable Model=1 Conn=wye kW=4.52                  pf = 0.97 Vminpu = 0.88 
New Load.138642A0a     phases=1 Bus1=SX3235256A.1 kV=.120 Status=variable Model=1 Conn=wye kW=3.04                  pf = 0.97 Vminpu = 0.88 
New Load.138642A0b     phases=1 Bus1=SX3235256A.2 kV=.120 Status=variable Model=1 Conn=wye kW=5.09                  pf = 0.97 Vminpu = 0.88 
New Load.138644A0a     phases=1 Bus1=SX3197630A.1 kV=.120 Status=variable Model=1 Conn=wye kW=7.2                   pf = 0.97 Vminpu = 0.88 
New Load.138644A0b     phases=1 Bus1=SX3197630A.2 kV=.120 Status=variable Model=1 Conn=wye kW=3.22                  pf = 0.97 Vminpu = 0.88 
New Load.138645B0a     phases=1 Bus1=SX3104120B.1 kV=.120 Status=variable Model=1 Conn=wye kW=45.25                 pf = 0.97 Vminpu = 0.88 
New Load.138645B0b     phases=1 Bus1=SX3104120B.2 kV=.120 Status=variable Model=1 Conn=wye kW=4.34                  pf = 0.97 Vminpu = 0.88 
New Load.138646A0a     phases=1 Bus1=SX2804251A.1 kV=.120 Status=variable Model=1 Conn=wye kW=6.72                  pf = 0.97 Vminpu = 0.88 
New Load.138646A0b     phases=1 Bus1=SX2804251A.2 kV=.120 Status=variable Model=1 Conn=wye kW=4.13                  pf = 0.97 Vminpu = 0.88 
New Load.138647C0a     phases=1 Bus1=SX3254210C.1 kV=.120 Status=variable Model=1 Conn=wye kW=6.2                   pf = 0.97 Vminpu = 0.88 
New Load.138647C0b     phases=1 Bus1=SX3254210C.2 kV=.120 Status=variable Model=1 Conn=wye kW=7.08                  pf = 0.97 Vminpu = 0.88 
New Load.138649A0a     phases=1 Bus1=SX3048206A.1 kV=.120 Status=variable Model=1 Conn=wye kW=0.91                  pf = 0.97 Vminpu = 0.88 
New Load.138649A0b     phases=1 Bus1=SX3048206A.2 kV=.120 Status=variable Model=1 Conn=wye kW=2.23                  pf = 0.97 Vminpu = 0.88 
New Load.138650C0a     phases=1 Bus1=SX2710510C.1 kV=.120 Status=variable Model=1 Conn=wye kW=3.1                   pf = 0.97 Vminpu = 0.88 
New Load.138650C0b     phases=1 Bus1=SX2710510C.2 kV=.120 Status=variable Model=1 Conn=wye kW=3.85                  pf = 0.97 Vminpu = 0.88 
New Load.138651C0a     phases=1 Bus1=SX3197628C.1 kV=.120 Status=variable Model=1 Conn=wye kW=1.94                  pf = 0.97 Vminpu = 0.88 
New Load.138651C0b     phases=1 Bus1=SX3197628C.2 kV=.120 Status=variable Model=1 Conn=wye kW=2.92                  pf = 0.97 Vminpu = 0.88 
New Load.138652C0a     phases=1 Bus1=SX2766718C.1 kV=.120 Status=variable Model=1 Conn=wye kW=2.92                  pf = 0.97 Vminpu = 0.88 
New Load.138652C0b     phases=1 Bus1=SX2766718C.2 kV=.120 Status=variable Model=1 Conn=wye kW=1.38                  pf = 0.97 Vminpu = 0.88 
New Load.138655A0a     phases=1 Bus1=SX3010556A.1 kV=.120 Status=variable Model=1 Conn=wye kW=8.26                  pf = 0.97 Vminpu = 0.88 
New Load.138655A0b     phases=1 Bus1=SX3010556A.2 kV=.120 Status=variable Model=1 Conn=wye kW=5.15                  pf = 0.97 Vminpu = 0.88 
New Load.138679A0a     phases=1 Bus1=SX2710520A.1 kV=.120 Status=variable Model=1 Conn=wye kW=2.77                  pf = 0.97 Vminpu = 0.88 
New Load.138679A0b     phases=1 Bus1=SX2710520A.2 kV=.120 Status=variable Model=1 Conn=wye kW=10.48                 pf = 0.97 Vminpu = 0.88 
New Load.138680A0a     phases=1 Bus1=SX2710521A.1 kV=.120 Status=variable Model=1 Conn=wye kW=2.2                   pf = 0.97 Vminpu = 0.88 
New Load.138680A0b     phases=1 Bus1=SX2710521A.2 kV=.120 Status=variable Model=1 Conn=wye kW=6.95                  pf = 0.97 Vminpu = 0.88 
New Load.138684A0a     phases=1 Bus1=SX3085396A.1 kV=.120 Status=variable Model=1 Conn=wye kW=3.13                  pf = 0.97 Vminpu = 0.88 
New Load.138684A0b     phases=1 Bus1=SX3085396A.2 kV=.120 Status=variable Model=1 Conn=wye kW=3.82                  pf = 0.97 Vminpu = 0.88 
New Load.138685A0a     phases=1 Bus1=SX3122813A.1 kV=.120 Status=variable Model=1 Conn=wye kW=4.28                  pf = 0.97 Vminpu = 0.88 
New Load.138685A0b     phases=1 Bus1=SX3122813A.2 kV=.120 Status=variable Model=1 Conn=wye kW=3.06                  pf = 0.97 Vminpu = 0.88 
New Load.138716C0a     phases=1 Bus1=SX3254219C.1 kV=.120 Status=variable Model=1 Conn=wye kW=8.23                  pf = 0.97 Vminpu = 0.88 
New Load.138716C0b     phases=1 Bus1=SX3254219C.2 kV=.120 Status=variable Model=1 Conn=wye kW=6.51                  pf = 0.97 Vminpu = 0.88 
New Load.138717C0a     phases=1 Bus1=SX3254220C.1 kV=.120 Status=variable Model=1 Conn=wye kW=5.75                  pf = 0.97 Vminpu = 0.88 
New Load.138717C0b     phases=1 Bus1=SX3254220C.2 kV=.120 Status=variable Model=1 Conn=wye kW=6.3                   pf = 0.97 Vminpu = 0.88 
New Load.138718C0a     phases=1 Bus1=SX3104134C.1 kV=.120 Status=variable Model=1 Conn=wye kW=3.09                  pf = 0.97 Vminpu = 0.88 
New Load.138718C0b     phases=1 Bus1=SX3104134C.2 kV=.120 Status=variable Model=1 Conn=wye kW=3.73                  pf = 0.97 Vminpu = 0.88 
New Load.138719A0a     phases=1 Bus1=SX2860490A.1 kV=.120 Status=variable Model=1 Conn=wye kW=2.03                  pf = 0.97 Vminpu = 0.88 
New Load.138719A0b     phases=1 Bus1=SX2860490A.2 kV=.120 Status=variable Model=1 Conn=wye kW=2.81                  pf = 0.97 Vminpu = 0.88 
New Load.138720A0a     phases=1 Bus1=SX3254218A.1 kV=.120 Status=variable Model=1 Conn=wye kW=2.82                  pf = 0.97 Vminpu = 0.88 
New Load.138720A0b     phases=1 Bus1=SX3254218A.2 kV=.120 Status=variable Model=1 Conn=wye kW=3.4                   pf = 0.97 Vminpu = 0.88 
New Load.138751B0a     phases=1 Bus1=SX3066818B.1 kV=.120 Status=variable Model=1 Conn=wye kW=2.51                  pf = 0.97 Vminpu = 0.88 
New Load.138751B0b     phases=1 Bus1=SX3066818B.2 kV=.120 Status=variable Model=1 Conn=wye kW=4.24                  pf = 0.97 Vminpu = 0.88 
New Load.138752B0a     phases=1 Bus1=SX2785528B.1 kV=.120 Status=variable Model=1 Conn=wye kW=1.77                  pf = 0.97 Vminpu = 0.88 
New Load.138752B0b     phases=1 Bus1=SX2785528B.2 kV=.120 Status=variable Model=1 Conn=wye kW=3.67                  pf = 0.97 Vminpu = 0.88 
New Load.138753B0a     phases=1 Bus1=SX2748130B.1 kV=.120 Status=variable Model=1 Conn=wye kW=2.96                  pf = 0.97 Vminpu = 0.88 
New Load.138753B0b     phases=1 Bus1=SX2748130B.2 kV=.120 Status=variable Model=1 Conn=wye kW=12.13                 pf = 0.97 Vminpu = 0.88 
New Load.138754B0a     phases=1 Bus1=SX3254212B.1 kV=.120 Status=variable Model=1 Conn=wye kW=3.52                  pf = 0.97 Vminpu = 0.88 
New Load.138754B0b     phases=1 Bus1=SX3254212B.2 kV=.120 Status=variable Model=1 Conn=wye kW=5.74                  pf = 0.97 Vminpu = 0.88 
New Load.138755B0a     phases=1 Bus1=SX2785520B.1 kV=.120 Status=variable Model=1 Conn=wye kW=2.64                  pf = 0.97 Vminpu = 0.88 
New Load.138755B0b     phases=1 Bus1=SX2785520B.2 kV=.120 Status=variable Model=1 Conn=wye kW=4.21                  pf = 0.97 Vminpu = 0.88 
New Load.138769A0a     phases=1 Bus1=SX2729411A.1 kV=.120 Status=variable Model=1 Conn=wye kW=3.96                  pf = 0.97 Vminpu = 0.88 
New Load.138769A0b     phases=1 Bus1=SX2729411A.2 kV=.120 Status=variable Model=1 Conn=wye kW=7.94                  pf = 0.97 Vminpu = 0.88 
New Load.138770A0a     phases=1 Bus1=SX2897781A.1 kV=.120 Status=variable Model=1 Conn=wye kW=3.6                   pf = 0.97 Vminpu = 0.88 
New Load.138770A0b     phases=1 Bus1=SX2897781A.2 kV=.120 Status=variable Model=1 Conn=wye kW=2.28                  pf = 0.97 Vminpu = 0.88 
New Load.138771A0a     phases=1 Bus1=SX3197644A.1 kV=.120 Status=variable Model=1 Conn=wye kW=12.94                 pf = 0.97 Vminpu = 0.88 
New Load.138771A0b     phases=1 Bus1=SX3197644A.2 kV=.120 Status=variable Model=1 Conn=wye kW=3.86                  pf = 0.97 Vminpu = 0.88 
New Load.138776C0a     phases=1 Bus1=SX3010566C.1 kV=.120 Status=variable Model=1 Conn=wye kW=3.87                  pf = 0.97 Vminpu = 0.88 
New Load.138776C0b     phases=1 Bus1=SX3010566C.2 kV=.120 Status=variable Model=1 Conn=wye kW=2.13                  pf = 0.97 Vminpu = 0.88 
New Load.138796B0a     phases=1 Bus1=SX3236011B.1 kV=.120 Status=variable Model=1 Conn=wye kW=1.82                  pf = 0.97 Vminpu = 0.88 
New Load.138796B0b     phases=1 Bus1=SX3236011B.2 kV=.120 Status=variable Model=1 Conn=wye kW=4.64                  pf = 0.97 Vminpu = 0.88 
New Load.138797B0a     phases=1 Bus1=SX3198358B.1 kV=.120 Status=variable Model=1 Conn=wye kW=3.85                  pf = 0.97 Vminpu = 0.88 
New Load.138797B0b     phases=1 Bus1=SX3198358B.2 kV=.120 Status=variable Model=1 Conn=wye kW=6.15                  pf = 0.97 Vminpu = 0.88 
New Load.138798B0a     phases=1 Bus1=SX3104859B.1 kV=.120 Status=variable Model=1 Conn=wye kW=6.89                  pf = 0.97 Vminpu = 0.88 
New Load.138798B0b     phases=1 Bus1=SX3104859B.2 kV=.120 Status=variable Model=1 Conn=wye kW=2.69                  pf = 0.97 Vminpu = 0.88 
New Load.157715B0a     phases=1 Bus1=SX2936275B.1 kV=.120 Status=variable Model=1 Conn=wye kW=3.75                  pf = 0.97 Vminpu = 0.88 
New Load.157715B0b     phases=1 Bus1=SX2936275B.2 kV=.120 Status=variable Model=1 Conn=wye kW=4.89                  pf = 0.97 Vminpu = 0.88 
New Load.157716B0a     phases=1 Bus1=SX3179674B.1 kV=.120 Status=variable Model=1 Conn=wye kW=10.19                 pf = 0.97 Vminpu = 0.88 
New Load.157716B0b     phases=1 Bus1=SX3179674B.2 kV=.120 Status=variable Model=1 Conn=wye kW=7.85                  pf = 0.97 Vminpu = 0.88 
New Load.157717B0a     phases=1 Bus1=SX2748840B.1 kV=.120 Status=variable Model=1 Conn=wye kW=6.75                  pf = 0.97 Vminpu = 0.88 
New Load.157717B0b     phases=1 Bus1=SX2748840B.2 kV=.120 Status=variable Model=1 Conn=wye kW=2.4                   pf = 0.97 Vminpu = 0.88 
New Load.157718B0a     phases=1 Bus1=SX3142099B.1 kV=.120 Status=variable Model=1 Conn=wye kW=1.48                  pf = 0.97 Vminpu = 0.88 
New Load.157718B0b     phases=1 Bus1=SX3142099B.2 kV=.120 Status=variable Model=1 Conn=wye kW=4.88                  pf = 0.97 Vminpu = 0.88 
New Load.207286C0a     phases=1 Bus1=SX3011298C.1 kV=.120 Status=variable Model=1 Conn=wye kW=3.07                  pf = 0.97 Vminpu = 0.88 
New Load.207286C0b     phases=1 Bus1=SX3011298C.2 kV=.120 Status=variable Model=1 Conn=wye kW=5.58                  pf = 0.97 Vminpu = 0.88 
New Load.207287B0a     phases=1 Bus1=SX2711234B.1 kV=.120 Status=variable Model=1 Conn=wye kW=3.61                  pf = 0.97 Vminpu = 0.88 
New Load.207287B0b     phases=1 Bus1=SX2711234B.2 kV=.120 Status=variable Model=1 Conn=wye kW=28.29                 pf = 0.97 Vminpu = 0.88 
New Load.207288B0a     phases=1 Bus1=SX3198355B.1 kV=.120 Status=variable Model=1 Conn=wye kW=6.23                  pf = 0.97 Vminpu = 0.88 
New Load.207288B0b     phases=1 Bus1=SX3198355B.2 kV=.120 Status=variable Model=1 Conn=wye kW=5.65                  pf = 0.97 Vminpu = 0.88 
New Load.207290A0a     phases=1 Bus1=SX2879773A.1 kV=.120 Status=variable Model=1 Conn=wye kW=2.38                  pf = 0.97 Vminpu = 0.88 
New Load.207290A0b     phases=1 Bus1=SX2879773A.2 kV=.120 Status=variable Model=1 Conn=wye kW=16.0                  pf = 0.97 Vminpu = 0.88 
New Load.207291C0a     phases=1 Bus1=SX2786274C.1 kV=.120 Status=variable Model=1 Conn=wye kW=6.01                  pf = 0.97 Vminpu = 0.88 
New Load.207291C0b     phases=1 Bus1=SX2786274C.2 kV=.120 Status=variable Model=1 Conn=wye kW=18.6                  pf = 0.97 Vminpu = 0.88 
New Load.207292C0a     phases=1 Bus1=SX3179682C.1 kV=.120 Status=variable Model=1 Conn=wye kW=11.99                 pf = 0.97 Vminpu = 0.88 
New Load.207292C0b     phases=1 Bus1=SX3179682C.2 kV=.120 Status=variable Model=1 Conn=wye kW=3.17                  pf = 0.97 Vminpu = 0.88 
New Load.218472A0a     phases=1 Bus1=SX2936270A.1 kV=.120 Status=variable Model=1 Conn=wye kW=4.4                   pf = 0.97 Vminpu = 0.88 
New Load.218472A0b     phases=1 Bus1=SX2936270A.2 kV=.120 Status=variable Model=1 Conn=wye kW=3.45                  pf = 0.97 Vminpu = 0.88 
New Load.218473A0a     phases=1 Bus1=SX3086078A.1 kV=.120 Status=variable Model=1 Conn=wye kW=2.6                   pf = 0.97 Vminpu = 0.88 
New Load.218473A0b     phases=1 Bus1=SX3086078A.2 kV=.120 Status=variable Model=1 Conn=wye kW=3.45                  pf = 0.97 Vminpu = 0.88 
New Load.218474A0a     phases=1 Bus1=SX3217056A.1 kV=.120 Status=variable Model=1 Conn=wye kW=1.33                  pf = 0.97 Vminpu = 0.88 
New Load.218474A0b     phases=1 Bus1=SX3217056A.2 kV=.120 Status=variable Model=1 Conn=wye kW=4.79                  pf = 0.97 Vminpu = 0.88 
New Load.218475A0a     phases=1 Bus1=SX3217057A.1 kV=.120 Status=variable Model=1 Conn=wye kW=4.03                  pf = 0.97 Vminpu = 0.88 
New Load.218475A0b     phases=1 Bus1=SX3217057A.2 kV=.120 Status=variable Model=1 Conn=wye kW=3.46                  pf = 0.97 Vminpu = 0.88 
New Load.223655C0a     phases=1 Bus1=SX2936268C.1 kV=.120 Status=variable Model=1 Conn=wye kW=4.37                  pf = 0.97 Vminpu = 0.88 
New Load.223655C0b     phases=1 Bus1=SX2936268C.2 kV=.120 Status=variable Model=1 Conn=wye kW=2.7                   pf = 0.97 Vminpu = 0.88 
New Load.223658A0a     phases=1 Bus1=SX2823592A.1 kV=.120 Status=variable Model=1 Conn=wye kW=1.88                  pf = 0.97 Vminpu = 0.88 
New Load.223658A0b     phases=1 Bus1=SX2823592A.2 kV=.120 Status=variable Model=1 Conn=wye kW=2.32                  pf = 0.97 Vminpu = 0.88 
New Load.223660C0a     phases=1 Bus1=SX3160863C.1 kV=.120 Status=variable Model=1 Conn=wye kW=2.96                  pf = 0.97 Vminpu = 0.88 
New Load.223660C0b     phases=1 Bus1=SX3160863C.2 kV=.120 Status=variable Model=1 Conn=wye kW=2.43                  pf = 0.97 Vminpu = 0.88 
New Load.223661C0a     phases=1 Bus1=SX2730108C.1 kV=.120 Status=variable Model=1 Conn=wye kW=2.8                   pf = 0.97 Vminpu = 0.88 
New Load.223661C0b     phases=1 Bus1=SX2730108C.2 kV=.120 Status=variable Model=1 Conn=wye kW=2.83                  pf = 0.97 Vminpu = 0.88 
New Load.223662C0a     phases=1 Bus1=SX2786204C.1 kV=.120 Status=variable Model=1 Conn=wye kW=8.76                  pf = 0.97 Vminpu = 0.88 
New Load.223662C0b     phases=1 Bus1=SX2786204C.2 kV=.120 Status=variable Model=1 Conn=wye kW=4.4                   pf = 0.97 Vminpu = 0.88 
New Load.223663C0a     phases=1 Bus1=SX2936216C.1 kV=.120 Status=variable Model=1 Conn=wye kW=3.19                  pf = 0.97 Vminpu = 0.88 
New Load.223663C0b     phases=1 Bus1=SX2936216C.2 kV=.120 Status=variable Model=1 Conn=wye kW=12.7                  pf = 0.97 Vminpu = 0.88 
New Load.247036C0a     phases=1 Bus1=SX3029498C.1 kV=.120 Status=variable Model=1 Conn=wye kW=2.97                  pf = 0.97 Vminpu = 0.88 
New Load.247036C0b     phases=1 Bus1=SX3029498C.2 kV=.120 Status=variable Model=1 Conn=wye kW=5.56                  pf = 0.97 Vminpu = 0.88 
New Load.247056A0a     phases=1 Bus1=SX2991912A.1 kV=.120 Status=variable Model=1 Conn=wye kW=2.77                  pf = 0.97 Vminpu = 0.88 
New Load.247056A0b     phases=1 Bus1=SX2991912A.2 kV=.120 Status=variable Model=1 Conn=wye kW=2.78                  pf = 0.97 Vminpu = 0.88 
...
